java/SFINA/configuration_files/experiment-LineRemovalManishRankingCase30/output/time_4/iteration_1/flow/links.txt
id,current,real_power_from,reactive_power_from,real_power_to,reactive_power_to,resistance,reactance,susceptance,rateA,rateB,rateC,ratio,angle,angmin,angmax
1,0.0,18.988869807803546,-7.696631463245396,-18.909074724189743,4.936016714086668,0.02,0.06,0.03,130.0,130.0,130.0,0.0,0.0,-360.0,360.0
2,0.0,19.79631119274712,4.117551171650291,-19.587269559329844,-5.285563760429644,0.05,0.19,0.02,130.0,130.0,130.0,0.0,0.0,-360.0,360.0
3,0.0,19.47612233716251,5.553232495262277,-19.222763818705076,-6.791103380986035,0.06,0.17,0.02,65.0,65.0,65.0,0.0,0.0,-360.0,360.0
4,0.0,17.187269559329206,4.0855637604307065,-17.154839848502675,-3.955844917124572,0.01,0.04,0.0,130.0,130.0,130.0,0.0,0.0,-360.0,360.0
5,0.0,15.231678708957686,4.659397328413562,-15.099662301750799,-6.09458457102461,0.05,0.2,0.02,130.0,130.0,130.0,0.0,0.0,-360.0,360.0
6,0.0,23.471273678068766,7.676425288242557,-23.095565051756832,-8.492153001613225,0.06,0.18,0.02,65.0,65.0,65.0,0.0,0.0,-360.0,360.0
7,0.0,22.37165903753607,10.626511333289027,-22.307475609596594,-10.369777621531147,0.01,0.04,0.0,90.0,90.0,90.0,0.0,0.0,-360.0,360.0
8,0.0,15.099662301750644,6.277602616598192,-14.957598370708396,-6.88448123556533,0.05,0.12,0.01,70.0,70.0,70.0,0.0,0.0,-360.0,360.0
9,0.0,7.866243326272776,3.141464209148709,-7.842401629291701,-4.015518764434808,0.03,0.08,0.01,130.0,130.0,130.0,0.0,0.0,-360.0,360.0
10,0.0,23.320314327482688,24.39229545978755,-23.199529812535435,-23.909157399998538,0.01,0.04,0.0,32.0,32.0,32.0,0.0,0.0,-360.0,360.0
11,0.0,13.345482842588593,-3.8932064337366485,-13.345482842588593,4.3236484848147585,0.0,0.21,0.0,65.0,65.0,65.0,0.0,0.0,-360.0,360.0
12,0.0,7.62599019576504,-2.2246893907065455,-7.62599019576504,2.5994960746385143,0.0,0.56,0.0,32.0,32.0,32.0,0.0,0.0,-360.0,360.0
13,0.0,0.0,0.0,0.0,0.0,0.0,0.21,0.0,65.0,65.0,65.0,0.0,0.0,-360.0,360.0
14,0.0,13.345482842589254,-4.323648484814288,-13.345482842589254,4.549118130617123,0.0,0.11,0.0,65.0,65.0,65.0,0.0,0.0,-360.0,360.0
15,0.0,6.4059446296711275,-1.4795630351788915,-6.4059446296711275,1.5971556399795392,0.0,0.26,0.0,65.0,65.0,65.0,0.0,0.0,-360.0,360.0
16,0.0,-36.999999999999986,-11.860766890040587,36.999999999999986,14.053883175266233,0.0,0.14,0.0,65.0,65.0,65.0,0.0,0.0,-360.0,360.0
17,0.0,7.078105703039106,1.5332984825170575,-7.012795514592224,-1.3917930742154825,0.12,0.26,0.0,32.0,32.0,32.0,0.0,0.0,-360.0,360.0
18,0.0,15.586469365623875,2.304486362698855,-15.406153328543976,-1.96961372240761,0.07,0.13,0.0,32.0,32.0,32.0,0.0,0.0,-360.0,360.0
19,0.0,9.541369561008512,-1.0741735951543867,-9.45527352924837,1.2654981101769338,0.09,0.2,0.0,32.0,32.0,32.0,0.0,0.0,-360.0,360.0
20,0.0,0.8127955145922636,-0.20820692578444594,-0.8111464918565717,0.20970603736234794,0.22,0.2,0.0,16.0,16.0,16.0,0.0,0.0,-360.0,360.0
21,0.0,5.955273529248357,-3.065498110177104,-5.917546230593229,3.1551004444830335,0.08,0.19,0.0,16.0,16.0,16.0,0.0,0.0,-360.0,360.0
22,0.0,8.0172998204004,-0.7400923149547519,-7.941154888929091,0.8923821778973707,0.11,0.22,0.0,16.0,16.0,16.0,0.0,0.0,-360.0,360.0
23,0.0,4.741154888929231,-1.792382177897372,-4.724445275086711,1.8285863412228316,0.06,0.13,0.0,16.0,16.0,16.0,0.0,0.0,-360.0,360.0
24,0.0,-4.77555472491366,-5.228586341223034,4.791878834232788,5.266675929634335,0.03,0.07,0.0,32.0,32.0,32.0,0.0,0.0,-360.0,360.0
25,0.0,7.073487430189636,6.157095986866904,-6.99187883423269,-5.966675929634029,0.09,0.21,0.0,32.0,32.0,32.0,0.0,0.0,-360.0,360.0
26,0.0,3.1106710114544134,9.03034642327687,-3.0824537694067726,-8.95510044448316,0.03,0.08,0.0,32.0,32.0,32.0,0.0,0.0,-360.0,360.0
27,0.0,4.660475048754084,-14.236039673273341,-4.59106830018063,14.397988753278067,0.03,0.07,0.0,32.0,32.0,32.0,0.0,0.0,-360.0,360.0
28,0.0,0.3268395479575106,-10.100016942124743,-0.2531367961976453,10.257951410181597,0.07,0.15,0.0,32.0,32.0,32.0,0.0,0.0,-360.0,360.0
29,0.0,-12.90893169981892,-25.597988753278443,12.992192404559322,25.76451016275924,0.01,0.02,0.0,32.0,32.0,32.0,0.0,0.0,-360.0,360.0
30,0.0,-8.805305769580784,-5.248408821791849,8.914666564473727,5.467130411577737,0.1,0.2,0.0,16.0,16.0,16.0,0.0,0.0,-360.0,360.0
31,0.0,8.85094439163815,6.888234636582147,-8.699999999999172,-6.661818049123681,0.12,0.18,0.0,16.0,16.0,16.0,0.0,0.0,-360.0,360.0
32,0.0,16.00000000000625,-3.343209194644106,-15.652669837971093,4.064587223486358,0.13,0.27,0.0,16.0,16.0,16.0,0.0,0.0,-360.0,360.0
33,0.0,-7.877608505732151,1.6338424996974106,8.004676254152757,-1.4131458840195166,0.19,0.33,0.0,16.0,16.0,16.0,0.0,0.0,-360.0,360.0
34,0.0,3.5466667216827723,2.3709334169580103,-3.4999999999998948,-2.3000000000000362,0.25,0.38,0.0,16.0,16.0,16.0,0.0,0.0,-360.0,360.0
35,0.0,1.058167783096664E-12,8.533390963131375E-13,-1.058167783096662E-12,-8.533390963131336E-13,0.11,0.21,0.0,16.0,16.0,16.0,0.0,0.0,-360.0,360.0
36,0.0,-13.613723046217526,-6.023030719986856,13.613723046217526,6.958020751835189,0.0,0.4,0.0,65.0,65.0,65.0,0.0,0.0,-360.0,360.0
37,0.0,6.173882003297198,1.6840278133304194,-6.083785912230442,-1.5120261849302483,0.22,0.42,0.0,16.0,16.0,16.0,0.0,0.0,-360.0,360.0
38,0.0,7.122394950487262,1.6745629326654417,-6.951090403779476,-1.3533669075883406,0.32,0.6,0.0,16.0,16.0,16.0,0.0,0.0,-360.0,360.0
39,0.0,3.6837859122304377,0.6120261849301709,-3.6489095962205433,-0.5466330924116205,0.24,0.45,0.0,16.0,16.0,16.0,0.0,0.0,-360.0,360.0
40,0.0,-6.800470187464369,-6.090842600001256,6.848133973630934,4.3827650663618645,0.06,0.2,0.02,32.0,32.0,32.0,0.0,0.0,-360.0,360.0
41,0.0,-6.75499003075725,-2.553933221345201,6.765589072588181,1.6402656536282936,0.02,0.06,0.01,32.0,32.0,32.0,0.0,0.0,-360.0,360.0
